*SPEF "ieee 1481-1999"
*DESIGN "rgb_mixer"
*DATE "10:27:29 Thursday September 11, 2025"
*VENDOR "The OpenROAD Project"
*PROGRAM "OpenROAD"
*VERSION "edf00dff99f6c40d67a30c0e22a8191c5d2ed9d6"
*DESIGN_FLOW "NAME_SCOPE LOCAL" "PIN_CAP NONE"
*DIVIDER /
*DELIMITER :
*BUS_DELIMITER []
*T_UNIT 1 NS
*C_UNIT 1 PF
*R_UNIT 1 OHM
*L_UNIT 1 HENRY

*NAME_MAP
*1 clk
*2 enc0_a
*3 enc0_b
*4 enc1_a
*5 enc1_b
*6 enc2_a
*7 enc2_b
*8 net28
*9 net19
*10 net20
*11 net21
*12 net22
*13 net23
*14 net24
*15 net25
*16 net26
*17 net27
*18 pwm0_out
*19 pwm1_out
*20 pwm2_out
*21 reset
*22 sync
*25 _000_
*26 _001_
*27 _002_
*28 _003_
*29 _004_
*30 _005_
*31 _006_
*32 _007_
*33 _008_
*34 _009_
*35 _010_
*36 _011_
*37 _012_
*38 _013_
*39 _014_
*40 _015_
*41 _016_
*42 _017_
*43 _018_
*44 _019_
*45 _020_
*46 _021_
*47 _022_
*48 _023_
*49 _024_
*50 _025_
*51 _026_
*52 _027_
*53 _028_
*54 _029_
*55 _030_
*56 _031_
*57 _032_
*58 _033_
*59 _034_
*60 _035_
*61 _036_
*62 _037_
*63 _038_
*64 _039_
*65 _040_
*66 _041_
*67 _042_
*68 _043_
*69 _044_
*70 _045_
*71 _046_
*72 _047_
*73 _048_
*74 _049_
*75 _050_
*76 _051_
*77 _052_
*78 _053_
*79 _054_
*80 _055_
*81 _056_
*82 _057_
*83 _058_
*84 _059_
*85 _060_
*86 _061_
*87 _062_
*88 _063_
*89 _064_
*90 _065_
*91 _066_
*92 _067_
*93 _068_
*94 _069_
*95 _070_
*96 _071_
*97 _072_
*98 _073_
*99 _074_
*100 _075_
*101 _076_
*102 _077_
*103 _078_
*104 _079_
*105 _080_
*106 _081_
*107 _082_
*108 _083_
*109 _084_
*110 _085_
*111 _086_
*112 _087_
*113 _088_
*114 _089_
*115 _090_
*116 _091_
*117 _092_
*118 _093_
*119 _094_
*120 _095_
*121 _096_
*122 _097_
*123 _098_
*124 _099_
*125 _100_
*126 _101_
*127 _102_
*128 _103_
*129 _104_
*130 _105_
*131 _106_
*132 _107_
*133 _108_
*134 _109_
*135 _110_
*136 _111_
*137 _112_
*138 _113_
*139 _114_
*140 _115_
*141 _116_
*142 _117_
*143 _118_
*144 _119_
*145 _120_
*146 _121_
*147 _122_
*148 _123_
*149 _124_
*150 _125_
*151 _126_
*152 _127_
*153 _128_
*154 _129_
*155 _130_
*156 _131_
*157 _132_
*158 _133_
*159 _134_
*160 _135_
*161 _136_
*162 _137_
*163 _138_
*164 _139_
*165 _140_
*166 _141_
*167 _142_
*168 _143_
*169 _144_
*170 _145_
*171 _146_
*172 _147_
*173 _148_
*174 _149_
*175 _150_
*176 _151_
*177 _152_
*178 _153_
*179 _154_
*180 _155_
*181 _156_
*182 _157_
*183 _158_
*184 _159_
*185 _160_
*186 _161_
*187 _162_
*188 _163_
*189 _164_
*190 _165_
*191 _166_
*192 _167_
*193 _168_
*194 _169_
*195 _170_
*196 _171_
*197 _172_
*198 _173_
*199 _174_
*200 _175_
*201 _176_
*202 _177_
*203 _178_
*204 _179_
*205 _180_
*206 _181_
*207 _182_
*208 _183_
*209 _184_
*210 _185_
*211 _186_
*212 _187_
*213 _188_
*214 _189_
*215 _190_
*216 _191_
*217 _192_
*218 _193_
*219 _194_
*220 _195_
*221 _196_
*222 _197_
*223 _198_
*224 _199_
*225 _200_
*226 _201_
*227 _202_
*228 _203_
*229 _204_
*230 _205_
*231 _206_
*232 _207_
*233 _208_
*234 _209_
*235 _210_
*236 _211_
*237 _212_
*238 _213_
*239 _214_
*240 _215_
*241 _216_
*242 _217_
*243 _218_
*244 _219_
*245 _220_
*246 _221_
*247 _222_
*248 _223_
*249 _224_
*250 _225_
*251 _226_
*252 _227_
*253 _228_
*254 _229_
*255 _230_
*256 _231_
*257 _232_
*258 _233_
*259 _234_
*260 _235_
*261 _236_
*262 _237_
*263 _238_
*264 _239_
*265 _240_
*266 _241_
*267 _242_
*268 _243_
*269 _244_
*270 _245_
*271 _246_
*272 _247_
*273 _248_
*274 _249_
*275 _250_
*276 _251_
*277 _252_
*278 _253_
*279 _254_
*280 _255_
*281 _256_
*282 _257_
*283 _258_
*284 _259_
*285 _260_
*286 _261_
*287 _262_
*288 _263_
*289 _264_
*290 _265_
*291 _266_
*292 _267_
*293 _268_
*294 _269_
*295 _270_
*296 _271_
*297 _272_
*298 _273_
*299 _274_
*300 _275_
*301 _276_
*302 _277_
*303 _278_
*304 _279_
*305 _280_
*306 _281_
*307 _282_
*308 _283_
*309 _284_
*310 _285_
*311 _286_
*312 _287_
*313 _288_
*314 _289_
*315 _290_
*316 _291_
*317 _292_
*318 _293_
*319 _294_
*320 _295_
*321 _296_
*322 _297_
*323 _298_
*324 _299_
*325 _300_
*326 _301_
*327 _302_
*328 _303_
*329 _304_
*330 _305_
*331 _306_
*332 _307_
*333 _308_
*334 _309_
*335 _310_
*336 _311_
*337 _312_
*338 _313_
*339 _314_
*340 _315_
*341 _316_
*342 _317_
*343 _318_
*344 _319_
*345 _320_
*346 _321_
*347 _322_
*348 _323_
*349 _324_
*350 _325_
*351 _326_
*352 _327_
*353 _328_
*354 _329_
*355 _330_
*356 _331_
*357 _332_
*358 _333_
*359 _334_
*360 _335_
*361 _336_
*362 _337_
*363 _338_
*364 _339_
*365 _340_
*366 _341_
*367 _342_
*368 _343_
*369 _344_
*370 _345_
*371 _346_
*372 _347_
*373 _348_
*374 _349_
*375 _350_
*376 _351_
*377 _352_
*378 _353_
*379 _354_
*380 _355_
*381 _356_
*382 _357_
*383 _358_
*384 _359_
*385 _360_
*386 clknet_0_clk
*387 clknet_3_0__leaf_clk
*388 clknet_3_1__leaf_clk
*389 clknet_3_2__leaf_clk
*390 clknet_3_3__leaf_clk
*391 clknet_3_4__leaf_clk
*392 clknet_3_5__leaf_clk
*393 clknet_3_6__leaf_clk
*394 clknet_3_7__leaf_clk
*395 debounce0_a\.button_hist\[0\]
*396 debounce0_a\.button_hist\[1\]
*397 debounce0_a\.button_hist\[2\]
*398 debounce0_a\.button_hist\[3\]
*399 debounce0_a\.button_hist\[4\]
*400 debounce0_a\.button_hist\[5\]
*401 debounce0_a\.button_hist\[6\]
*402 debounce0_a\.button_hist\[7\]
*403 debounce0_a\.debounced
*404 debounce0_b\.button_hist\[0\]
*405 debounce0_b\.button_hist\[1\]
*406 debounce0_b\.button_hist\[2\]
*407 debounce0_b\.button_hist\[3\]
*408 debounce0_b\.button_hist\[4\]
*409 debounce0_b\.button_hist\[5\]
*410 debounce0_b\.button_hist\[6\]
*411 debounce0_b\.button_hist\[7\]
*412 debounce0_b\.debounced
*413 debounce1_a\.button_hist\[0\]
*414 debounce1_a\.button_hist\[1\]
*415 debounce1_a\.button_hist\[2\]
*416 debounce1_a\.button_hist\[3\]
*417 debounce1_a\.button_hist\[4\]
*418 debounce1_a\.button_hist\[5\]
*419 debounce1_a\.button_hist\[6\]
*420 debounce1_a\.button_hist\[7\]
*421 debounce1_a\.debounced
*422 debounce1_b\.button_hist\[0\]
*423 debounce1_b\.button_hist\[1\]
*424 debounce1_b\.button_hist\[2\]
*425 debounce1_b\.button_hist\[3\]
*426 debounce1_b\.button_hist\[4\]
*427 debounce1_b\.button_hist\[5\]
*428 debounce1_b\.button_hist\[6\]
*429 debounce1_b\.button_hist\[7\]
*430 debounce1_b\.debounced
*431 debounce2_a\.button_hist\[0\]
*432 debounce2_a\.button_hist\[1\]
*433 debounce2_a\.button_hist\[2\]
*434 debounce2_a\.button_hist\[3\]
*435 debounce2_a\.button_hist\[4\]
*436 debounce2_a\.button_hist\[5\]
*437 debounce2_a\.button_hist\[6\]
*438 debounce2_a\.button_hist\[7\]
*439 debounce2_a\.debounced
*440 debounce2_b\.button_hist\[0\]
*441 debounce2_b\.button_hist\[1\]
*442 debounce2_b\.button_hist\[2\]
*443 debounce2_b\.button_hist\[3\]
*444 debounce2_b\.button_hist\[4\]
*445 debounce2_b\.button_hist\[5\]
*446 debounce2_b\.button_hist\[6\]
*447 debounce2_b\.button_hist\[7\]
*448 debounce2_b\.debounced
*449 enc0\[0\]
*450 enc0\[1\]
*451 enc0\[2\]
*452 enc0\[3\]
*453 enc0\[4\]
*454 enc0\[5\]
*455 enc0\[6\]
*456 enc0\[7\]
*457 enc1\[0\]
*458 enc1\[1\]
*459 enc1\[2\]
*460 enc1\[3\]
*461 enc1\[4\]
*462 enc1\[5\]
*463 enc1\[6\]
*464 enc1\[7\]
*465 enc2\[0\]
*466 enc2\[1\]
*467 enc2\[2\]
*468 enc2\[3\]
*469 enc2\[4\]
*470 enc2\[5\]
*471 enc2\[6\]
*472 enc2\[7\]
*473 encoder0\.old_a
*474 encoder0\.old_b
*475 encoder1\.old_a
*476 encoder1\.old_b
*477 encoder2\.old_a
*478 encoder2\.old_b
*479 net1
*480 net10
*481 net100
*482 net101
*483 net102
*484 net103
*485 net104
*486 net105
*487 net106
*488 net107
*489 net108
*490 net109
*491 net11
*492 net110
*493 net111
*494 net112
*495 net113
*496 net114
*497 net115
*498 net116
*499 net117
*500 net118
*501 net119
*502 net12
*503 net120
*504 net121
*505 net122
*506 net123
*507 net124
*508 net125
*509 net126
*510 net127
*511 net128
*512 net129
*513 net13
*514 net130
*515 net131
*516 net132
*517 net133
*518 net134
*519 net135
*520 net136
*521 net137
*522 net138
*523 net139
*524 net14
*525 net140
*526 net141
*527 net142
*528 net143
*529 net144
*530 net145
*531 net146
*532 net147
*533 net148
*534 net149
*535 net15
*536 net150
*537 net151
*538 net152
*539 net153
*540 net154
*541 net155
*542 net156
*543 net157
*544 net158
*545 net159
*546 net16
*547 net160
*548 net161
*549 net162
*550 net163
*551 net164
*552 net165
*553 net166
*554 net167
*555 net168
*556 net169
*557 net17
*558 net170
*559 net171
*560 net172
*561 net173
*562 net174
*563 net175
*564 net176
*565 net177
*566 net178
*567 net179
*568 net18
*569 net180
*570 net181
*571 net182
*572 net183
*573 net184
*574 net2
*575 net29
*576 net3
*577 net30
*578 net31
*579 net32
*580 net33
*581 net34
*582 net35
*583 net36
*584 net37
*585 net38
*586 net39
*587 net4
*588 net40
*589 net41
*590 net42
*591 net43
*592 net44
*593 net45
*594 net46
*595 net47
*596 net48
*597 net49
*598 net5
*599 net50
*600 net51
*601 net52
*602 net53
*603 net54
*604 net55
*605 net56
*606 net57
*607 net58
*608 net59
*609 net6
*610 net60
*611 net61
*612 net62
*613 net63
*614 net64
*615 net65
*616 net66
*617 net67
*618 net68
*619 net69
*620 net7
*621 net70
*622 net71
*623 net72
*624 net73
*625 net74
*626 net75
*627 net76
*628 net77
*629 net78
*630 net79
*631 net8
*632 net80
*633 net81
*634 net82
*635 net83
*636 net84
*637 net85
*638 net86
*639 net87
*640 net88
*641 net89
*642 net9
*643 net90
*644 net91
*645 net92
*646 net93
*647 net94
*648 net95
*649 net96
*650 net97
*651 net98
*652 net99
*653 pwm0\.count\[0\]
*654 pwm0\.count\[1\]
*655 pwm0\.count\[2\]
*656 pwm0\.count\[3\]
*657 pwm0\.count\[4\]
*658 pwm0\.count\[5\]
*659 pwm0\.count\[6\]
*660 pwm0\.count\[7\]
*661 pwm1\.count\[0\]
*662 pwm1\.count\[1\]
*663 pwm1\.count\[2\]
*664 pwm1\.count\[3\]
*665 pwm1\.count\[4\]
*666 pwm1\.count\[5\]
*667 pwm1\.count\[6\]
*668 pwm1\.count\[7\]
*669 pwm2\.count\[0\]
*670 pwm2\.count\[1\]
*671 pwm2\.count\[2\]
*672 pwm2\.count\[3\]
*673 pwm2\.count\[4\]
*674 pwm2\.count\[5\]
*675 pwm2\.count\[6\]
*676 pwm2\.count\[7\]
*677 ANTENNA__384__B
*678 ANTENNA__394__B
*679 ANTENNA__396__B
*680 ANTENNA__398__B
*681 ANTENNA__399__B
*682 ANTENNA__400__B
*683 ANTENNA__407__B
*684 ANTENNA__408__B
*685 ANTENNA__409__B
*686 ANTENNA__410__B
*687 ANTENNA__414__B
*688 ANTENNA__416__B
*689 ANTENNA__417__B
*690 ANTENNA__419__A
*691 ANTENNA__420__B
*692 ANTENNA__421__B
*693 ANTENNA__422__B
*694 ANTENNA__423__B
*695 ANTENNA__424__B
*696 ANTENNA__425__B
*697 ANTENNA__426__B
*698 ANTENNA__427__B
*699 ANTENNA__433__A
*700 ANTENNA__434__B
*701 ANTENNA__435__B
*702 ANTENNA__436__B
*703 ANTENNA__437__B
*704 ANTENNA__454__B
*705 ANTENNA__479__B1
*706 ANTENNA__485__B
*707 ANTENNA__490__B1
*708 ANTENNA__500__C1
*709 ANTENNA__506__C1
*710 ANTENNA__533__A
*711 ANTENNA__538__C1
*712 ANTENNA__543__B1
*713 ANTENNA__554__A
*714 ANTENNA__561__A
*715 ANTENNA__567__C1
*716 ANTENNA__575__A
*717 ANTENNA__580__A
*718 ANTENNA__588__A
*719 ANTENNA__593__C1
*720 ANTENNA__598__B1
*721 ANTENNA__609__A
*722 ANTENNA__615__A
*723 ANTENNA__620__A
*724 ANTENNA__625__B1
*725 ANTENNA__631__A
*726 ANTENNA__639__A
*727 ANTENNA__644__C1
*728 ANTENNA__659__B1
*729 ANTENNA__670__B
*730 ANTENNA__671__B1
*731 ANTENNA__675__A
*732 ANTENNA__677__A
*733 ANTENNA__680__A
*734 ANTENNA__683__A
*735 ANTENNA__686__A
*736 ANTENNA__688__B1
*737 ANTENNA__701__B1
*738 ANTENNA__720__B1
*739 ANTENNA__843__A
*740 ANTENNA_clkbuf_0_clk_A
*741 ANTENNA_clkbuf_0_clk_X
*742 ANTENNA_clkbuf_3_0__f_clk_A
*743 ANTENNA_clkbuf_3_1__f_clk_A
*744 ANTENNA_clkbuf_3_2__f_clk_A
*745 ANTENNA_clkbuf_3_3__f_clk_A
*746 ANTENNA_clkbuf_3_4__f_clk_A
*747 ANTENNA_clkbuf_3_5__f_clk_A
*748 ANTENNA_clkbuf_3_6__f_clk_A
*749 ANTENNA_clkbuf_3_7__f_clk_A
*750 ANTENNA_fanout12_A
*751 ANTENNA_fanout13_X
*752 ANTENNA_fanout14_X
*753 ANTENNA_fanout16_A
*754 ANTENNA_fanout17_A
*755 ANTENNA_fanout17_X
*756 ANTENNA_fanout18_A
*757 ANTENNA_fanout18_X
*758 ANTENNA_input1_A
*759 ANTENNA_input2_A
*760 ANTENNA_input3_A
*761 ANTENNA_input4_A
*762 ANTENNA_input5_A
*763 ANTENNA_input6_A
*764 ANTENNA_input7_A
*765 ANTENNA_input7_X
*766 FILLER_0_109
*767 FILLER_0_111
*768 FILLER_0_113
*769 FILLER_0_125
*770 FILLER_0_137
*771 FILLER_0_139
*772 FILLER_0_141
*773 FILLER_0_15
*774 FILLER_0_153
*775 FILLER_0_165
*776 FILLER_0_167
*777 FILLER_0_169
*778 FILLER_0_181
*779 FILLER_0_193
*780 FILLER_0_195
*781 FILLER_0_197
*782 FILLER_0_209
*783 FILLER_0_221
*784 FILLER_0_223
*785 FILLER_0_225
*786 FILLER_0_230
*787 FILLER_0_242
*788 FILLER_0_250
*789 FILLER_0_253
*790 FILLER_0_265
*791 FILLER_0_27
*792 FILLER_0_277
*793 FILLER_0_279
*794 FILLER_0_281
*795 FILLER_0_29
*796 FILLER_0_293
*797 FILLER_0_297
*798 FILLER_0_3
*799 FILLER_0_41
*800 FILLER_0_49
*801 FILLER_0_51
*802 FILLER_0_55
*803 FILLER_0_57
*804 FILLER_0_60
*805 FILLER_0_72
*806 FILLER_0_85
*807 FILLER_0_97
*808 FILLER_10_109
*809 FILLER_10_121
*810 FILLER_10_133
*811 FILLER_10_137
*812 FILLER_10_139
*813 FILLER_10_141
*814 FILLER_10_15
*815 FILLER_10_153
*816 FILLER_10_165
*817 FILLER_10_177
*818 FILLER_10_189
*819 FILLER_10_193
*820 FILLER_10_195
*821 FILLER_10_197
*822 FILLER_10_209
*823 FILLER_10_221
*824 FILLER_10_233
*825 FILLER_10_245
*826 FILLER_10_249
*827 FILLER_10_251
*828 FILLER_10_253
*829 FILLER_10_265
*830 FILLER_10_27
*831 FILLER_10_277
*832 FILLER_10_289
*833 FILLER_10_29
*834 FILLER_10_293
*835 FILLER_10_295
*836 FILLER_10_298
*837 FILLER_10_3
*838 FILLER_10_41
*839 FILLER_10_53
*840 FILLER_10_65
*841 FILLER_10_77
*842 FILLER_10_81
*843 FILLER_10_83
*844 FILLER_10_85
*845 FILLER_10_97
*846 FILLER_11_105
*847 FILLER_11_109
*848 FILLER_11_111
*849 FILLER_11_113
*850 FILLER_11_125
*851 FILLER_11_137
*852 FILLER_11_149
*853 FILLER_11_15
*854 FILLER_11_161
*855 FILLER_11_165
*856 FILLER_11_167
*857 FILLER_11_169
*858 FILLER_11_181
*859 FILLER_11_193
*860 FILLER_11_205
*861 FILLER_11_217
*862 FILLER_11_221
*863 FILLER_11_223
*864 FILLER_11_225
*865 FILLER_11_237
*866 FILLER_11_249
*867 FILLER_11_261
*868 FILLER_11_27
*869 FILLER_11_273
*870 FILLER_11_277
*871 FILLER_11_279
*872 FILLER_11_281
*873 FILLER_11_289
*874 FILLER_11_292
*875 FILLER_11_298
*876 FILLER_11_3
*877 FILLER_11_39
*878 FILLER_11_51
*879 FILLER_11_55
*880 FILLER_11_57
*881 FILLER_11_69
*882 FILLER_11_81
*883 FILLER_11_93
*884 FILLER_12_109
*885 FILLER_12_121
*886 FILLER_12_133
*887 FILLER_12_137
*888 FILLER_12_139
*889 FILLER_12_141
*890 FILLER_12_15
*891 FILLER_12_153
*892 FILLER_12_165
*893 FILLER_12_177
*894 FILLER_12_189
*895 FILLER_12_193
*896 FILLER_12_195
*897 FILLER_12_197
*898 FILLER_12_209
*899 FILLER_12_221
*900 FILLER_12_233
*901 FILLER_12_245
*902 FILLER_12_249
*903 FILLER_12_251
*904 FILLER_12_253
*905 FILLER_12_265
*906 FILLER_12_27
*907 FILLER_12_277
*908 FILLER_12_289
*909 FILLER_12_29
*910 FILLER_12_297
*911 FILLER_12_3
*912 FILLER_12_41
*913 FILLER_12_53
*914 FILLER_12_65
*915 FILLER_12_77
*916 FILLER_12_81
*917 FILLER_12_83
*918 FILLER_12_85
*919 FILLER_12_97
*920 FILLER_13_105
*921 FILLER_13_109
*922 FILLER_13_111
*923 FILLER_13_113
*924 FILLER_13_125
*925 FILLER_13_137
*926 FILLER_13_149
*927 FILLER_13_15
*928 FILLER_13_161
*929 FILLER_13_164
*930 FILLER_13_169
*931 FILLER_13_181
*932 FILLER_13_193
*933 FILLER_13_205
*934 FILLER_13_217
*935 FILLER_13_221
*936 FILLER_13_223
*937 FILLER_13_225
*938 FILLER_13_237
*939 FILLER_13_249
*940 FILLER_13_261
*941 FILLER_13_27
*942 FILLER_13_273
*943 FILLER_13_277
*944 FILLER_13_279
*945 FILLER_13_281
*946 FILLER_13_293
*947 FILLER_13_297
*948 FILLER_13_3
*949 FILLER_13_39
*950 FILLER_13_51
*951 FILLER_13_55
*952 FILLER_13_57
*953 FILLER_13_69
*954 FILLER_13_81
*955 FILLER_13_93
*956 FILLER_14_109
*957 FILLER_14_121
*958 FILLER_14_133
*959 FILLER_14_137
*960 FILLER_14_139
*961 FILLER_14_141
*962 FILLER_14_15
*963 FILLER_14_153
*964 FILLER_14_157
*965 FILLER_14_162
*966 FILLER_14_180
*967 FILLER_14_192
*968 FILLER_14_197
*969 FILLER_14_209
*970 FILLER_14_221
*971 FILLER_14_233
*972 FILLER_14_245
*973 FILLER_14_249
*974 FILLER_14_251
*975 FILLER_14_253
*976 FILLER_14_265
*977 FILLER_14_27
*978 FILLER_14_277
*979 FILLER_14_289
*980 FILLER_14_29
*981 FILLER_14_297
*982 FILLER_14_3
*983 FILLER_14_41
*984 FILLER_14_53
*985 FILLER_14_65
*986 FILLER_14_77
*987 FILLER_14_81
*988 FILLER_14_83
*989 FILLER_14_85
*990 FILLER_14_97
*991 FILLER_15_108
*992 FILLER_15_113
*993 FILLER_15_125
*994 FILLER_15_133
*995 FILLER_15_142
*996 FILLER_15_148
*997 FILLER_15_15
*998 FILLER_15_152
*999 FILLER_15_164
*1000 FILLER_15_169
*1001 FILLER_15_178
*1002 FILLER_15_190
*1003 FILLER_15_202
*1004 FILLER_15_204
*1005 FILLER_15_207
*1006 FILLER_15_219
*1007 FILLER_15_223
*1008 FILLER_15_225
*1009 FILLER_15_237
*1010 FILLER_15_249
*1011 FILLER_15_261
*1012 FILLER_15_27
*1013 FILLER_15_273
*1014 FILLER_15_277
*1015 FILLER_15_279
*1016 FILLER_15_281
*1017 FILLER_15_293
*1018 FILLER_15_297
*1019 FILLER_15_3
*1020 FILLER_15_39
*1021 FILLER_15_51
*1022 FILLER_15_55
*1023 FILLER_15_57
*1024 FILLER_15_69
*1025 FILLER_15_81
*1026 FILLER_15_89
*1027 FILLER_15_96
*1028 FILLER_16_104
*1029 FILLER_16_116
*1030 FILLER_16_120
*1031 FILLER_16_122
*1032 FILLER_16_139
*1033 FILLER_16_141
*1034 FILLER_16_15
*1035 FILLER_16_151
*1036 FILLER_16_171
*1037 FILLER_16_182
*1038 FILLER_16_187
*1039 FILLER_16_195
*1040 FILLER_16_197
*1041 FILLER_16_201
*1042 FILLER_16_205
*1043 FILLER_16_215
*1044 FILLER_16_223
*1045 FILLER_16_229
*1046 FILLER_16_234
*1047 FILLER_16_238
*1048 FILLER_16_245
*1049 FILLER_16_249
*1050 FILLER_16_251
*1051 FILLER_16_253
*1052 FILLER_16_256
*1053 FILLER_16_268
*1054 FILLER_16_27
*1055 FILLER_16_280
*1056 FILLER_16_29
*1057 FILLER_16_292
*1058 FILLER_16_296
*1059 FILLER_16_298
*1060 FILLER_16_3
*1061 FILLER_16_41
*1062 FILLER_16_45
*1063 FILLER_16_63
*1064 FILLER_16_71
*1065 FILLER_16_73
*1066 FILLER_16_79
*1067 FILLER_16_83
*1068 FILLER_16_85
*1069 FILLER_16_93
*1070 FILLER_16_97
*1071 FILLER_17_101
*1072 FILLER_17_111
*1073 FILLER_17_113
*1074 FILLER_17_125
*1075 FILLER_17_137
*1076 FILLER_17_141
*1077 FILLER_17_148
*1078 FILLER_17_15
*1079 FILLER_17_156
*1080 FILLER_17_161
*1081 FILLER_17_165
*1082 FILLER_17_167
*1083 FILLER_17_169
*1084 FILLER_17_177
*1085 FILLER_17_185
*1086 FILLER_17_197
*1087 FILLER_17_217
*1088 FILLER_17_222
*1089 FILLER_17_225
*1090 FILLER_17_233
*1091 FILLER_17_251
*1092 FILLER_17_253
*1093 FILLER_17_259
*1094 FILLER_17_264
*1095 FILLER_17_268
*1096 FILLER_17_27
*1097 FILLER_17_281
*1098 FILLER_17_293
*1099 FILLER_17_297
*1100 FILLER_17_3
*1101 FILLER_17_39
*1102 FILLER_17_52
*1103 FILLER_17_57
*1104 FILLER_17_66
*1105 FILLER_17_70
*1106 FILLER_17_79
*1107 FILLER_17_97
*1108 FILLER_18_112
*1109 FILLER_18_130
*1110 FILLER_18_138
*1111 FILLER_18_141
*1112 FILLER_18_15
*1113 FILLER_18_153
*1114 FILLER_18_155
*1115 FILLER_18_163
*1116 FILLER_18_173
*1117 FILLER_18_177
*1118 FILLER_18_179
*1119 FILLER_18_188
*1120 FILLER_18_195
*1121 FILLER_18_197
*1122 FILLER_18_206
*1123 FILLER_18_217
*1124 FILLER_18_227
*1125 FILLER_18_237
*1126 FILLER_18_248
*1127 FILLER_18_253
*1128 FILLER_18_262
*1129 FILLER_18_27
*1130 FILLER_18_274
*1131 FILLER_18_286
*1132 FILLER_18_29
*1133 FILLER_18_298
*1134 FILLER_18_3
*1135 FILLER_18_41
*1136 FILLER_18_65
*1137 FILLER_18_83
*1138 FILLER_18_85
*1139 FILLER_18_94
*1140 FILLER_19_107
*1141 FILLER_19_111
*1142 FILLER_19_113
*1143 FILLER_19_122
*1144 FILLER_19_130
*1145 FILLER_19_142
*1146 FILLER_19_15
*1147 FILLER_19_154
*1148 FILLER_19_158
*1149 FILLER_19_167
*1150 FILLER_19_169
*1151 FILLER_19_179
*1152 FILLER_19_187
*1153 FILLER_19_192
*1154 FILLER_19_196
*1155 FILLER_19_204
*1156 FILLER_19_213
*1157 FILLER_19_222
*1158 FILLER_19_225
*1159 FILLER_19_232
*1160 FILLER_19_236
*1161 FILLER_19_244
*1162 FILLER_19_252
*1163 FILLER_19_260
*1164 FILLER_19_27
*1165 FILLER_19_272
*1166 FILLER_19_281
*1167 FILLER_19_293
*1168 FILLER_19_297
*1169 FILLER_19_3
*1170 FILLER_19_39
*1171 FILLER_19_47
*1172 FILLER_19_49
*1173 FILLER_19_55
*1174 FILLER_19_57
*1175 FILLER_19_59
*1176 FILLER_19_65
*1177 FILLER_19_83
*1178 FILLER_19_93
*1179 FILLER_19_97
*1180 FILLER_1_105
*1181 FILLER_1_109
*1182 FILLER_1_111
*1183 FILLER_1_113
*1184 FILLER_1_125
*1185 FILLER_1_137
*1186 FILLER_1_149
*1187 FILLER_1_15
*1188 FILLER_1_161
*1189 FILLER_1_165
*1190 FILLER_1_167
*1191 FILLER_1_169
*1192 FILLER_1_181
*1193 FILLER_1_193
*1194 FILLER_1_205
*1195 FILLER_1_217
*1196 FILLER_1_221
*1197 FILLER_1_223
*1198 FILLER_1_225
*1199 FILLER_1_237
*1200 FILLER_1_249
*1201 FILLER_1_261
*1202 FILLER_1_27
*1203 FILLER_1_273
*1204 FILLER_1_277
*1205 FILLER_1_279
*1206 FILLER_1_281
*1207 FILLER_1_293
*1208 FILLER_1_297
*1209 FILLER_1_3
*1210 FILLER_1_39
*1211 FILLER_1_51
*1212 FILLER_1_55
*1213 FILLER_1_57
*1214 FILLER_1_69
*1215 FILLER_1_81
*1216 FILLER_1_93
*1217 FILLER_20_101
*1218 FILLER_20_119
*1219 FILLER_20_131
*1220 FILLER_20_138
*1221 FILLER_20_141
*1222 FILLER_20_144
*1223 FILLER_20_15
*1224 FILLER_20_156
*1225 FILLER_20_164
*1226 FILLER_20_172
*1227 FILLER_20_181
*1228 FILLER_20_193
*1229 FILLER_20_195
*1230 FILLER_20_197
*1231 FILLER_20_201
*1232 FILLER_20_209
*1233 FILLER_20_218
*1234 FILLER_20_230
*1235 FILLER_20_245
*1236 FILLER_20_249
*1237 FILLER_20_251
*1238 FILLER_20_253
*1239 FILLER_20_265
*1240 FILLER_20_27
*1241 FILLER_20_277
*1242 FILLER_20_289
*1243 FILLER_20_29
*1244 FILLER_20_297
*1245 FILLER_20_3
*1246 FILLER_20_41
*1247 FILLER_20_53
*1248 FILLER_20_77
*1249 FILLER_20_81
*1250 FILLER_20_83
*1251 FILLER_20_85
*1252 FILLER_20_91
*1253 FILLER_21_101
*1254 FILLER_21_110
*1255 FILLER_21_113
*1256 FILLER_21_125
*1257 FILLER_21_145
*1258 FILLER_21_15
*1259 FILLER_21_150
*1260 FILLER_21_162
*1261 FILLER_21_166
*1262 FILLER_21_169
*1263 FILLER_21_181
*1264 FILLER_21_199
*1265 FILLER_21_209
*1266 FILLER_21_215
*1267 FILLER_21_219
*1268 FILLER_21_223
*1269 FILLER_21_225
*1270 FILLER_21_237
*1271 FILLER_21_239
*1272 FILLER_21_248
*1273 FILLER_21_257
*1274 FILLER_21_269
*1275 FILLER_21_27
*1276 FILLER_21_277
*1277 FILLER_21_279
*1278 FILLER_21_281
*1279 FILLER_21_293
*1280 FILLER_21_297
*1281 FILLER_21_3
*1282 FILLER_21_39
*1283 FILLER_21_51
*1284 FILLER_21_55
*1285 FILLER_21_57
*1286 FILLER_21_61
*1287 FILLER_21_71
*1288 FILLER_21_75
*1289 FILLER_21_84
*1290 FILLER_21_99
*1291 FILLER_22_109
*1292 FILLER_22_113
*1293 FILLER_22_117
*1294 FILLER_22_126
*1295 FILLER_22_137
*1296 FILLER_22_139
*1297 FILLER_22_141
*1298 FILLER_22_15
*1299 FILLER_22_153
*1300 FILLER_22_158
*1301 FILLER_22_170
*1302 FILLER_22_182
*1303 FILLER_22_194
*1304 FILLER_22_197
*1305 FILLER_22_214
*1306 FILLER_22_224
*1307 FILLER_22_232
*1308 FILLER_22_234
*1309 FILLER_22_251
*1310 FILLER_22_253
*1311 FILLER_22_262
*1312 FILLER_22_267
*1313 FILLER_22_27
*1314 FILLER_22_279
*1315 FILLER_22_29
*1316 FILLER_22_291
*1317 FILLER_22_298
*1318 FILLER_22_3
*1319 FILLER_22_41
*1320 FILLER_22_53
*1321 FILLER_22_65
*1322 FILLER_22_69
*1323 FILLER_22_75
*1324 FILLER_22_83
*1325 FILLER_22_85
*1326 FILLER_23_107
*1327 FILLER_23_111
*1328 FILLER_23_113
*1329 FILLER_23_119
*1330 FILLER_23_127
*1331 FILLER_23_137
*1332 FILLER_23_148
*1333 FILLER_23_15
*1334 FILLER_23_155
*1335 FILLER_23_167
*1336 FILLER_23_169
*1337 FILLER_23_181
*1338 FILLER_23_193
*1339 FILLER_23_205
*1340 FILLER_23_217
*1341 FILLER_23_221
*1342 FILLER_23_223
*1343 FILLER_23_225
*1344 FILLER_23_237
*1345 FILLER_23_241
*1346 FILLER_23_243
*1347 FILLER_23_247
*1348 FILLER_23_257
*1349 FILLER_23_269
*1350 FILLER_23_27
*1351 FILLER_23_277
*1352 FILLER_23_279
*1353 FILLER_23_281
*1354 FILLER_23_293
*1355 FILLER_23_297
*1356 FILLER_23_3
*1357 FILLER_23_39
*1358 FILLER_23_51
*1359 FILLER_23_55
*1360 FILLER_23_57
*1361 FILLER_23_69
*1362 FILLER_23_81
*1363 FILLER_23_95
*1364 FILLER_24_101
*1365 FILLER_24_103
*1366 FILLER_24_120
*1367 FILLER_24_130
*1368 FILLER_24_139
*1369 FILLER_24_141
*1370 FILLER_24_15
*1371 FILLER_24_151
*1372 FILLER_24_160
*1373 FILLER_24_172
*1374 FILLER_24_184
*1375 FILLER_24_197
*1376 FILLER_24_209
*1377 FILLER_24_221
*1378 FILLER_24_233
*1379 FILLER_24_245
*1380 FILLER_24_249
*1381 FILLER_24_251
*1382 FILLER_24_253
*1383 FILLER_24_265
*1384 FILLER_24_27
*1385 FILLER_24_277
*1386 FILLER_24_289
*1387 FILLER_24_29
*1388 FILLER_24_297
*1389 FILLER_24_3
*1390 FILLER_24_41
*1391 FILLER_24_53
*1392 FILLER_24_65
*1393 FILLER_24_77
*1394 FILLER_24_81
*1395 FILLER_24_83
*1396 FILLER_24_85
*1397 FILLER_24_97
*1398 FILLER_25_105
*1399 FILLER_25_109
*1400 FILLER_25_111
*1401 FILLER_25_113
*1402 FILLER_25_121
*1403 FILLER_25_136
*1404 FILLER_25_138
*1405 FILLER_25_145
*1406 FILLER_25_15
*1407 FILLER_25_150
*1408 FILLER_25_162
*1409 FILLER_25_166
*1410 FILLER_25_169
*1411 FILLER_25_181
*1412 FILLER_25_193
*1413 FILLER_25_205
*1414 FILLER_25_217
*1415 FILLER_25_221
*1416 FILLER_25_223
*1417 FILLER_25_225
*1418 FILLER_25_237
*1419 FILLER_25_251
*1420 FILLER_25_263
*1421 FILLER_25_27
*1422 FILLER_25_275
*1423 FILLER_25_279
*1424 FILLER_25_281
*1425 FILLER_25_298
*1426 FILLER_25_3
*1427 FILLER_25_39
*1428 FILLER_25_51
*1429 FILLER_25_55
*1430 FILLER_25_57
*1431 FILLER_25_69
*1432 FILLER_25_81
*1433 FILLER_25_93
*1434 FILLER_26_109
*1435 FILLER_26_113
*1436 FILLER_26_115
*1437 FILLER_26_128
*1438 FILLER_26_135
*1439 FILLER_26_139
*1440 FILLER_26_141
*1441 FILLER_26_15
*1442 FILLER_26_153
*1443 FILLER_26_165
*1444 FILLER_26_177
*1445 FILLER_26_189
*1446 FILLER_26_193
*1447 FILLER_26_195
*1448 FILLER_26_197
*1449 FILLER_26_209
*1450 FILLER_26_221
*1451 FILLER_26_233
*1452 FILLER_26_241
*1453 FILLER_26_249
*1454 FILLER_26_251
*1455 FILLER_26_253
*1456 FILLER_26_255
*1457 FILLER_26_27
*1458 FILLER_26_272
*1459 FILLER_26_284
*1460 FILLER_26_286
*1461 FILLER_26_29
*1462 FILLER_26_290
*1463 FILLER_26_294
*1464 FILLER_26_298
*1465 FILLER_26_3
*1466 FILLER_26_41
*1467 FILLER_26_53
*1468 FILLER_26_62
*1469 FILLER_26_70
*1470 FILLER_26_77
*1471 FILLER_26_81
*1472 FILLER_26_83
*1473 FILLER_26_85
*1474 FILLER_26_97
*1475 FILLER_27_11
*1476 FILLER_27_110
*1477 FILLER_27_113
*1478 FILLER_27_124
*1479 FILLER_27_136
*1480 FILLER_27_148
*1481 FILLER_27_161
*1482 FILLER_27_165
*1483 FILLER_27_167
*1484 FILLER_27_169
*1485 FILLER_27_180
*1486 FILLER_27_186
*1487 FILLER_27_208
*1488 FILLER_27_215
*1489 FILLER_27_223
*1490 FILLER_27_225
*1491 FILLER_27_23
*1492 FILLER_27_234
*1493 FILLER_27_243
*1494 FILLER_27_251
*1495 FILLER_27_260
*1496 FILLER_27_272
*1497 FILLER_27_281
*1498 FILLER_27_298
*1499 FILLER_27_3
*1500 FILLER_27_40
*1501 FILLER_27_42
*1502 FILLER_27_48
*1503 FILLER_27_55
*1504 FILLER_27_57
*1505 FILLER_27_69
*1506 FILLER_27_7
*1507 FILLER_27_73
*1508 FILLER_27_75
*1509 FILLER_27_92
*1510 FILLER_28_112
*1511 FILLER_28_118
*1512 FILLER_28_122
*1513 FILLER_28_134
*1514 FILLER_28_138
*1515 FILLER_28_141
*1516 FILLER_28_149
*1517 FILLER_28_15
*1518 FILLER_28_158
*1519 FILLER_28_160
*1520 FILLER_28_168
*1521 FILLER_28_178
*1522 FILLER_28_19
*1523 FILLER_28_190
*1524 FILLER_28_194
*1525 FILLER_28_197
*1526 FILLER_28_204
*1527 FILLER_28_206
*1528 FILLER_28_214
*1529 FILLER_28_219
*1530 FILLER_28_221
*1531 FILLER_28_231
*1532 FILLER_28_239
*1533 FILLER_28_249
*1534 FILLER_28_25
*1535 FILLER_28_251
*1536 FILLER_28_253
*1537 FILLER_28_260
*1538 FILLER_28_27
*1539 FILLER_28_272
*1540 FILLER_28_284
*1541 FILLER_28_29
*1542 FILLER_28_296
*1543 FILLER_28_298
*1544 FILLER_28_3
*1545 FILLER_28_37
*1546 FILLER_28_54
*1547 FILLER_28_78
*1548 FILLER_28_82
*1549 FILLER_28_85
*1550 FILLER_28_94
*1551 FILLER_29_106
*1552 FILLER_29_110
*1553 FILLER_29_113
*1554 FILLER_29_122
*1555 FILLER_29_134
*1556 FILLER_29_146
*1557 FILLER_29_154
*1558 FILLER_29_160
*1559 FILLER_29_167
*1560 FILLER_29_169
*1561 FILLER_29_178
*1562 FILLER_29_186
*1563 FILLER_29_19
*1564 FILLER_29_212
*1565 FILLER_29_220
*1566 FILLER_29_225
*1567 FILLER_29_232
*1568 FILLER_29_250
*1569 FILLER_29_262
*1570 FILLER_29_27
*1571 FILLER_29_274
*1572 FILLER_29_278
*1573 FILLER_29_281
*1574 FILLER_29_293
*1575 FILLER_29_297
*1576 FILLER_29_3
*1577 FILLER_29_37
*1578 FILLER_29_55
*1579 FILLER_29_57
*1580 FILLER_29_64
*1581 FILLER_29_7
*1582 FILLER_29_74
*1583 FILLER_29_96
*1584 FILLER_2_109
*1585 FILLER_2_121
*1586 FILLER_2_133
*1587 FILLER_2_137
*1588 FILLER_2_139
*1589 FILLER_2_141
*1590 FILLER_2_15
*1591 FILLER_2_153
*1592 FILLER_2_165
*1593 FILLER_2_177
*1594 FILLER_2_189
*1595 FILLER_2_193
*1596 FILLER_2_195
*1597 FILLER_2_197
*1598 FILLER_2_209
*1599 FILLER_2_221
*1600 FILLER_2_233
*1601 FILLER_2_245
*1602 FILLER_2_249
*1603 FILLER_2_251
*1604 FILLER_2_253
*1605 FILLER_2_265
*1606 FILLER_2_27
*1607 FILLER_2_277
*1608 FILLER_2_289
*1609 FILLER_2_29
*1610 FILLER_2_297
*1611 FILLER_2_3
*1612 FILLER_2_41
*1613 FILLER_2_53
*1614 FILLER_2_65
*1615 FILLER_2_77
*1616 FILLER_2_81
*1617 FILLER_2_83
*1618 FILLER_2_85
*1619 FILLER_2_97
*1620 FILLER_30_103
*1621 FILLER_30_113
*1622 FILLER_30_125
*1623 FILLER_30_137
*1624 FILLER_30_139
*1625 FILLER_30_141
*1626 FILLER_30_149
*1627 FILLER_30_15
*1628 FILLER_30_159
*1629 FILLER_30_177
*1630 FILLER_30_195
*1631 FILLER_30_197
*1632 FILLER_30_204
*1633 FILLER_30_208
*1634 FILLER_30_225
*1635 FILLER_30_243
*1636 FILLER_30_249
*1637 FILLER_30_251
*1638 FILLER_30_253
*1639 FILLER_30_262
*1640 FILLER_30_27
*1641 FILLER_30_274
*1642 FILLER_30_286
*1643 FILLER_30_29
*1644 FILLER_30_298
*1645 FILLER_30_3
*1646 FILLER_30_31
*1647 FILLER_30_37
*1648 FILLER_30_61
*1649 FILLER_30_70
*1650 FILLER_30_83
*1651 FILLER_30_85
*1652 FILLER_30_93
*1653 FILLER_31_106
*1654 FILLER_31_110
*1655 FILLER_31_113
*1656 FILLER_31_125
*1657 FILLER_31_136
*1658 FILLER_31_148
*1659 FILLER_31_15
*1660 FILLER_31_150
*1661 FILLER_31_157
*1662 FILLER_31_163
*1663 FILLER_31_167
*1664 FILLER_31_169
*1665 FILLER_31_178
*1666 FILLER_31_182
*1667 FILLER_31_184
*1668 FILLER_31_201
*1669 FILLER_31_211
*1670 FILLER_31_221
*1671 FILLER_31_223
*1672 FILLER_31_225
*1673 FILLER_31_229
*1674 FILLER_31_239
*1675 FILLER_31_249
*1676 FILLER_31_253
*1677 FILLER_31_265
*1678 FILLER_31_27
*1679 FILLER_31_277
*1680 FILLER_31_279
*1681 FILLER_31_281
*1682 FILLER_31_293
*1683 FILLER_31_297
*1684 FILLER_31_3
*1685 FILLER_31_39
*1686 FILLER_31_52
*1687 FILLER_31_57
*1688 FILLER_31_66
*1689 FILLER_31_70
*1690 FILLER_31_72
*1691 FILLER_31_89
*1692 FILLER_31_99
*1693 FILLER_32_109
*1694 FILLER_32_121
*1695 FILLER_32_133
*1696 FILLER_32_137
*1697 FILLER_32_139
*1698 FILLER_32_141
*1699 FILLER_32_145
*1700 FILLER_32_15
*1701 FILLER_32_162
*1702 FILLER_32_168
*1703 FILLER_32_176
*1704 FILLER_32_183
*1705 FILLER_32_188
*1706 FILLER_32_195
*1707 FILLER_32_197
*1708 FILLER_32_199
*1709 FILLER_32_208
*1710 FILLER_32_212
*1711 FILLER_32_221
*1712 FILLER_32_233
*1713 FILLER_32_241
*1714 FILLER_32_245
*1715 FILLER_32_249
*1716 FILLER_32_251
*1717 FILLER_32_253
*1718 FILLER_32_265
*1719 FILLER_32_27