*SPEF "ieee 1481-1999"
*DESIGN "rgb_mixer"
*DATE "15:17:25 Tuesday September 09, 2025"
*VENDOR "The OpenROAD Project"
*PROGRAM "OpenROAD"
*VERSION "edf00dff99f6c40d67a30c0e22a8191c5d2ed9d6"
*DESIGN_FLOW "NAME_SCOPE LOCAL" "PIN_CAP NONE"
*DIVIDER /
*DELIMITER :
*BUS_DELIMITER []
*T_UNIT 1 NS
*C_UNIT 1 PF
*R_UNIT 1 OHM
*L_UNIT 1 HENRY

*NAME_MAP
*1 clk
*2 enc0_a
*3 enc0_b
*4 enc1_a
*5 enc1_b
*6 enc2_a
*7 enc2_b
*8 net43
*9 net34
*10 net35
*11 net36
*12 net37
*13 net38
*14 net39
*15 net40
*16 net41
*17 net42
*18 pwm0_out
*19 pwm1_out
*20 pwm2_out
*21 reset
*22 sync
*25 _000_
*26 _001_
*27 _002_
*28 _003_
*29 _004_
*30 _005_
*31 _006_
*32 _007_
*33 _008_
*34 _009_
*35 _010_
*36 _011_
*37 _012_
*38 _013_
*39 _014_
*40 _015_
*41 _016_
*42 _017_
*43 _018_
*44 _019_
*45 _020_
*46 _021_
*47 _022_
*48 _023_
*49 _024_
*50 _025_
*51 _026_
*52 _027_
*53 _028_
*54 _029_
*55 _030_
*56 _031_
*57 _032_
*58 _033_
*59 _034_
*60 _035_
*61 _036_
*62 _037_
*63 _038_
*64 _039_
*65 _040_
*66 _041_
*67 _042_
*68 _043_
*69 _044_
*70 _045_
*71 _046_
*72 _047_
*73 _048_
*74 _049_
*75 _050_
*76 _051_
*77 _052_
*78 _053_
*79 _054_
*80 _055_
*81 _056_
*82 _057_
*83 _058_
*84 _059_
*85 _060_
*86 _061_
*87 _062_
*88 _063_
*89 _064_
*90 _065_
*91 _066_
*92 _067_
*93 _068_
*94 _069_
*95 _070_
*96 _071_
*97 _072_
*98 _073_
*99 _074_
*100 _075_
*101 _076_
*102 _077_
*103 _078_
*104 _079_
*105 _080_
*106 _081_
*107 _082_
*108 _083_
*109 _084_
*110 _085_
*111 _086_
*112 _087_
*113 _088_
*114 _089_
*115 _090_
*116 _091_
*117 _092_
*118 _093_
*119 _094_
*120 _095_
*121 _096_
*122 _097_
*123 _098_
*124 _099_
*125 _100_
*126 _101_
*127 _102_
*128 _103_
*129 _104_
*130 _105_
*131 _106_
*132 _107_
*133 _108_
*134 _109_
*135 _110_
*136 _111_
*137 _112_
*138 _113_
*139 _114_
*140 _115_
*141 _116_
*142 _117_
*143 _118_
*144 _119_
*145 _120_
*146 _121_
*147 _122_
*148 _123_
*149 _124_
*150 _125_
*151 _126_
*152 _127_
*153 _128_
*154 _129_
*155 _130_
*156 _131_
*157 _132_
*158 _133_
*159 _134_
*160 _135_
*161 _136_
*162 _137_
*163 _138_
*164 _139_
*165 _140_
*166 _141_
*167 _142_
*168 _143_
*169 _144_
*170 _145_
*171 _146_
*172 _147_
*173 _148_
*174 _149_
*175 _150_
*176 _151_
*177 _152_
*178 _153_
*179 _154_
*180 _155_
*181 _156_
*182 _157_
*183 _158_
*184 _159_
*185 _160_
*186 _161_
*187 _162_
*188 _163_
*189 _164_
*190 _165_
*191 _166_
*192 _167_
*193 _168_
*194 _169_
*195 _170_
*196 _171_
*197 _172_
*198 _173_
*199 _174_
*200 _175_
*201 _176_
*202 _177_
*203 _178_
*204 _179_
*205 _180_
*206 _181_
*207 _182_
*208 _183_
*209 _184_
*210 _185_
*211 _186_
*212 _187_
*213 _188_
*214 _189_
*215 _190_
*216 _191_
*217 _192_
*218 _193_
*219 _194_
*220 _195_
*221 _196_
*222 _197_
*223 _198_
*224 _199_
*225 _200_
*226 _201_
*227 _202_
*228 _203_
*229 _204_
*230 _205_
*231 _206_
*232 _207_
*233 _208_
*234 _209_
*235 _210_
*236 _211_
*237 _212_
*238 _213_
*239 _214_
*240 _215_
*241 _216_
*242 _217_
*243 _218_
*244 _219_
*245 _220_
*246 _221_
*247 _222_
*248 _223_
*249 _224_
*250 _225_
*251 _226_
*252 _227_
*253 _228_
*254 _229_
*255 _230_
*256 _231_
*257 _232_
*258 _233_
*259 _234_
*260 _235_
*261 _236_
*262 _237_
*263 _238_
*264 _239_
*265 _240_
*266 _241_
*267 _242_
*268 _243_
*269 _244_
*270 _245_
*271 _246_
*272 _247_
*273 _248_
*274 _249_
*275 _250_
*276 _251_
*277 _252_
*278 _253_
*279 _254_
*280 _255_
*281 _256_
*282 _257_
*283 _258_
*284 _259_
*285 _260_
*286 _261_
*287 _262_
*288 _263_
*289 _264_
*290 _265_
*291 _266_
*292 _267_
*293 _268_
*294 _269_
*295 _270_
*296 _271_
*297 _272_
*298 _273_
*299 _274_
*300 _275_
*301 _276_
*302 _277_
*303 _278_
*304 _279_
*305 _280_
*306 _281_
*307 _282_
*308 _283_
*309 _284_
*310 _285_
*311 _286_
*312 _287_
*313 _288_
*314 _289_
*315 _290_
*316 _291_
*317 _292_
*318 _293_
*319 _294_
*320 _295_
*321 _296_
*322 _297_
*323 _298_
*324 _299_
*325 _300_
*326 _301_
*327 _302_
*328 _303_
*329 _304_
*330 _305_
*331 _306_
*332 _307_
*333 _308_
*334 _309_
*335 _310_
*336 _311_
*337 _312_
*338 _313_
*339 _314_
*340 _315_
*341 _316_
*342 _317_
*343 _318_
*344 _319_
*345 _320_
*346 _321_
*347 _322_
*348 _323_
*349 _324_
*350 _325_
*351 _326_
*352 _327_
*353 _328_
*354 _329_
*355 _330_
*356 _331_
*357 _332_
*358 _333_
*359 _334_
*360 _335_
*361 _336_
*362 _337_
*363 _338_
*364 _339_
*365 _340_
*366 _341_
*367 _342_
*368 _343_
*369 _344_
*370 _345_
*371 _346_
*372 _347_
*373 _348_
*374 _349_
*375 _350_
*376 _351_
*377 _352_
*378 _353_
*379 _354_
*380 _355_
*381 _356_
*382 _357_
*383 _358_
*384 _359_
*385 _360_
*386 clknet_0_clk
*387 clknet_3_0__leaf_clk
*388 clknet_3_1__leaf_clk
*389 clknet_3_2__leaf_clk
*390 clknet_3_3__leaf_clk
*391 clknet_3_4__leaf_clk
*392 clknet_3_5__leaf_clk
*393 clknet_3_6__leaf_clk
*394 clknet_3_7__leaf_clk
*395 debounce0_a\.button_hist\[0\]
*396 debounce0_a\.button_hist\[1\]
*397 debounce0_a\.button_hist\[2\]
*398 debounce0_a\.button_hist\[3\]
*399 debounce0_a\.button_hist\[4\]
*400 debounce0_a\.button_hist\[5\]
*401 debounce0_a\.button_hist\[6\]
*402 debounce0_a\.button_hist\[7\]
*403 debounce0_a\.debounced
*404 debounce0_b\.button_hist\[0\]
*405 debounce0_b\.button_hist\[1\]
*406 debounce0_b\.button_hist\[2\]
*407 debounce0_b\.button_hist\[3\]
*408 debounce0_b\.button_hist\[4\]
*409 debounce0_b\.button_hist\[5\]
*410 debounce0_b\.button_hist\[6\]
*411 debounce0_b\.button_hist\[7\]
*412 debounce0_b\.debounced
*413 debounce1_a\.button_hist\[0\]
*414 debounce1_a\.button_hist\[1\]
*415 debounce1_a\.button_hist\[2\]
*416 debounce1_a\.button_hist\[3\]
*417 debounce1_a\.button_hist\[4\]
*418 debounce1_a\.button_hist\[5\]
*419 debounce1_a\.button_hist\[6\]
*420 debounce1_a\.button_hist\[7\]
*421 debounce1_a\.debounced
*422 debounce1_b\.button_hist\[0\]
*423 debounce1_b\.button_hist\[1\]
*424 debounce1_b\.button_hist\[2\]
*425 debounce1_b\.button_hist\[3\]
*426 debounce1_b\.button_hist\[4\]
*427 debounce1_b\.button_hist\[5\]
*428 debounce1_b\.button_hist\[6\]
*429 debounce1_b\.button_hist\[7\]
*430 debounce1_b\.debounced
*431 debounce2_a\.button_hist\[0\]
*432 debounce2_a\.button_hist\[1\]
*433 debounce2_a\.button_hist\[2\]
*434 debounce2_a\.button_hist\[3\]
*435 debounce2_a\.button_hist\[4\]
*436 debounce2_a\.button_hist\[5\]
*437 debounce2_a\.button_hist\[6\]
*438 debounce2_a\.button_hist\[7\]
*439 debounce2_a\.debounced
*440 debounce2_b\.button_hist\[0\]
*441 debounce2_b\.button_hist\[1\]
*442 debounce2_b\.button_hist\[2\]
*443 debounce2_b\.button_hist\[3\]
*444 debounce2_b\.button_hist\[4\]
*445 debounce2_b\.button_hist\[5\]
*446 debounce2_b\.button_hist\[6\]
*447 debounce2_b\.button_hist\[7\]
*448 debounce2_b\.debounced
*449 enc0\[0\]
*450 enc0\[1\]
*451 enc0\[2\]
*452 enc0\[3\]
*453 enc0\[4\]
*454 enc0\[5\]
*455 enc0\[6\]
*456 enc0\[7\]
*457 enc1\[0\]
*458 enc1\[1\]
*459 enc1\[2\]
*460 enc1\[3\]
*461 enc1\[4\]
*462 enc1\[5\]
*463 enc1\[6\]
*464 enc1\[7\]
*465 enc2\[0\]
*466 enc2\[1\]
*467 enc2\[2\]
*468 enc2\[3\]
*469 enc2\[4\]
*470 enc2\[5\]
*471 enc2\[6\]
*472 enc2\[7\]
*473 encoder0\.old_a
*474 encoder0\.old_b
*475 encoder1\.old_a
*476 encoder1\.old_b
*477 encoder2\.old_a
*478 encoder2\.old_b
*479 net1
*480 net10
*481 net100
*482 net101
*483 net102
*484 net103
*485 net104
*486 net105
*487 net106
*488 net107
*489 net108
*490 net109
*491 net11
*492 net110
*493 net111
*494 net112
*495 net113
*496 net114
*497 net115
*498 net116
*499 net117
*500 net118
*501 net119
*502 net12
*503 net120
*504 net121
*505 net122
*506 net123
*507 net124
*508 net125
*509 net13
*510 net14
*511 net15
*512 net16
*513 net17
*514 net18
*515 net19
*516 net2
*517 net20
*518 net21
*519 net22
*520 net23
*521 net24
*522 net25
*523 net26
*524 net27
*525 net28
*526 net29
*527 net3
*528 net30
*529 net31
*530 net32
*531 net33
*532 net4
*533 net44
*534 net45
*535 net46
*536 net47
*537 net48
*538 net49
*539 net5
*540 net50
*541 net51
*542 net52
*543 net53
*544 net54
*545 net55
*546 net56
*547 net57
*548 net58
*549 net59
*550 net6
*551 net60
*552 net61
*553 net62
*554 net63
*555 net64
*556 net65
*557 net66
*558 net67
*559 net68
*560 net69
*561 net7
*562 net70
*563 net71
*564 net72
*565 net73
*566 net74
*567 net75
*568 net76
*569 net77
*570 net78
*571 net79
*572 net8
*573 net80
*574 net81
*575 net82
*576 net83
*577 net84
*578 net85
*579 net86
*580 net87
*581 net88
*582 net89
*583 net9
*584 net90
*585 net91
*586 net92
*587 net93
*588 net94
*589 net95
*590 net96
*591 net97
*592 net98
*593 net99
*594 pwm0\.count\[0\]
*595 pwm0\.count\[1\]
*596 pwm0\.count\[2\]
*597 pwm0\.count\[3\]
*598 pwm0\.count\[4\]
*599 pwm0\.count\[5\]
*600 pwm0\.count\[6\]
*601 pwm0\.count\[7\]
*602 pwm1\.count\[0\]
*603 pwm1\.count\[1\]
*604 pwm1\.count\[2\]
*605 pwm1\.count\[3\]
*606 pwm1\.count\[4\]
*607 pwm1\.count\[5\]
*608 pwm1\.count\[6\]
*609 pwm1\.count\[7\]
*610 pwm2\.count\[0\]
*611 pwm2\.count\[1\]
*612 pwm2\.count\[2\]
*613 pwm2\.count\[3\]
*614 pwm2\.count\[4\]
*615 pwm2\.count\[5\]
*616 pwm2\.count\[6\]
*617 pwm2\.count\[7\]
*618 FILLER_0_109
*619 FILLER_0_111
*620 FILLER_0_113
*621 FILLER_0_125
*622 FILLER_0_137
*623 FILLER_0_139
*624 FILLER_0_141
*625 FILLER_0_15
*626 FILLER_0_153
*627 FILLER_0_165
*628 FILLER_0_167
*629 FILLER_0_169
*630 FILLER_0_181
*631 FILLER_0_193
*632 FILLER_0_195
*633 FILLER_0_197
*634 FILLER_0_209
*635 FILLER_0_221
*636 FILLER_0_223
*637 FILLER_0_225
*638 FILLER_0_237
*639 FILLER_0_249
*640 FILLER_0_251
*641 FILLER_0_253
*642 FILLER_0_265
*643 FILLER_0_27
*644 FILLER_0_277
*645 FILLER_0_279
*646 FILLER_0_281
*647 FILLER_0_286
*648 FILLER_0_29
*649 FILLER_0_298
*650 FILLER_0_3
*651 FILLER_0_41
*652 FILLER_0_48
*653 FILLER_0_57
*654 FILLER_0_69
*655 FILLER_0_81
*656 FILLER_0_83
*657 FILLER_0_85
*658 FILLER_0_97
*659 FILLER_10_101
*660 FILLER_10_113
*661 FILLER_10_125
*662 FILLER_10_137
*663 FILLER_10_139
*664 FILLER_10_141
*665 FILLER_10_15
*666 FILLER_10_153
*667 FILLER_10_165
*668 FILLER_10_177
*669 FILLER_10_189
*670 FILLER_10_193
*671 FILLER_10_195
*672 FILLER_10_213
*673 FILLER_10_225
*674 FILLER_10_237
*675 FILLER_10_249
*676 FILLER_10_251
*677 FILLER_10_253
*678 FILLER_10_265
*679 FILLER_10_27
*680 FILLER_10_277
*681 FILLER_10_289
*682 FILLER_10_29
*683 FILLER_10_297
*684 FILLER_10_3
*685 FILLER_10_41
*686 FILLER_10_53
*687 FILLER_10_65
*688 FILLER_10_77
*689 FILLER_10_81
*690 FILLER_10_83
*691 FILLER_11_110
*692 FILLER_11_113
*693 FILLER_11_119
*694 FILLER_11_131
*695 FILLER_11_143
*696 FILLER_11_147
*697 FILLER_11_15
*698 FILLER_11_154
*699 FILLER_11_166
*700 FILLER_11_169
*701 FILLER_11_171
*702 FILLER_11_188
*703 FILLER_11_190
*704 FILLER_11_194
*705 FILLER_11_206
*706 FILLER_11_218
*707 FILLER_11_222
*708 FILLER_11_241
*709 FILLER_11_253
*710 FILLER_11_265
*711 FILLER_11_27
*712 FILLER_11_277
*713 FILLER_11_279
*714 FILLER_11_281
*715 FILLER_11_293
*716 FILLER_11_295
*717 FILLER_11_3
*718 FILLER_11_39
*719 FILLER_11_43
*720 FILLER_11_50
*721 FILLER_11_54
*722 FILLER_11_57
*723 FILLER_11_65
*724 FILLER_11_72
*725 FILLER_11_84
*726 FILLER_11_88
*727 FILLER_12_125
*728 FILLER_12_137
*729 FILLER_12_139
*730 FILLER_12_141
*731 FILLER_12_15
*732 FILLER_12_158
*733 FILLER_12_170
*734 FILLER_12_174
*735 FILLER_12_178
*736 FILLER_12_190
*737 FILLER_12_194
*738 FILLER_12_209
*739 FILLER_12_221
*740 FILLER_12_233
*741 FILLER_12_245
*742 FILLER_12_249
*743 FILLER_12_251
*744 FILLER_12_269
*745 FILLER_12_27
*746 FILLER_12_281
*747 FILLER_12_29
*748 FILLER_12_293
*749 FILLER_12_297
*750 FILLER_12_3
*751 FILLER_12_41
*752 FILLER_12_49
*753 FILLER_12_67
*754 FILLER_12_77
*755 FILLER_12_81
*756 FILLER_12_83
*757 FILLER_12_85
*758 FILLER_12_89
*759 FILLER_12_98
*760 FILLER_13_103
*761 FILLER_13_129
*762 FILLER_13_141
*763 FILLER_13_148
*764 FILLER_13_15
*765 FILLER_13_150
*766 FILLER_13_155
*767 FILLER_13_167
*768 FILLER_13_169
*769 FILLER_13_181
*770 FILLER_13_185
*771 FILLER_13_193
*772 FILLER_13_200
*773 FILLER_13_212
*774 FILLER_13_216
*775 FILLER_13_232
*776 FILLER_13_244
*777 FILLER_13_268
*778 FILLER_13_27
*779 FILLER_13_281
*780 FILLER_13_293
*781 FILLER_13_297
*782 FILLER_13_3
*783 FILLER_13_39
*784 FILLER_13_51
*785 FILLER_13_55
*786 FILLER_13_57
*787 FILLER_13_65
*788 FILLER_13_82
*789 FILLER_13_90
*790 FILLER_14_128
*791 FILLER_14_141
*792 FILLER_14_149
*793 FILLER_14_154
*794 FILLER_14_166
*795 FILLER_14_18
*796 FILLER_14_195
*797 FILLER_14_204
*798 FILLER_14_216
*799 FILLER_14_228
*800 FILLER_14_240
*801 FILLER_14_244
*802 FILLER_14_246
*803 FILLER_14_26
*804 FILLER_14_273
*805 FILLER_14_285
*806 FILLER_14_29
*807 FILLER_14_297
*808 FILLER_14_41
*809 FILLER_14_53
*810 FILLER_14_6
*811 FILLER_14_65
*812 FILLER_14_77
*813 FILLER_14_81
*814 FILLER_14_83
*815 FILLER_14_85
*816 FILLER_14_97
*817 FILLER_15_120
*818 FILLER_15_133
*819 FILLER_15_15
*820 FILLER_15_161
*821 FILLER_15_165
*822 FILLER_15_167
*823 FILLER_15_169
*824 FILLER_15_188
*825 FILLER_15_190
*826 FILLER_15_205
*827 FILLER_15_217
*828 FILLER_15_221
*829 FILLER_15_223
*830 FILLER_15_225
*831 FILLER_15_237
*832 FILLER_15_249
*833 FILLER_15_253
*834 FILLER_15_265
*835 FILLER_15_27
*836 FILLER_15_277
*837 FILLER_15_279
*838 FILLER_15_281
*839 FILLER_15_293
*840 FILLER_15_297
*841 FILLER_15_3
*842 FILLER_15_39
*843 FILLER_15_51
*844 FILLER_15_55
*845 FILLER_15_57
*846 FILLER_15_69
*847 FILLER_15_81
*848 FILLER_15_95
*849 FILLER_16_101
*850 FILLER_16_105
*851 FILLER_16_107
*852 FILLER_16_116
*853 FILLER_16_118
*854 FILLER_16_135
*855 FILLER_16_139
*856 FILLER_16_141
*857 FILLER_16_15
*858 FILLER_16_170
*859 FILLER_16_182
*860 FILLER_16_194
*861 FILLER_16_197
*862 FILLER_16_209
*863 FILLER_16_221
*864 FILLER_16_236
*865 FILLER_16_248
*866 FILLER_16_253
*867 FILLER_16_265
*868 FILLER_16_27
*869 FILLER_16_277
*870 FILLER_16_289
*871 FILLER_16_29
*872 FILLER_16_297
*873 FILLER_16_3
*874 FILLER_16_41
*875 FILLER_16_53
*876 FILLER_16_65
*877 FILLER_16_77
*878 FILLER_16_81
*879 FILLER_16_83
*880 FILLER_17_103
*881 FILLER_17_111
*882 FILLER_17_121
*883 FILLER_17_133
*884 FILLER_17_145
*885 FILLER_17_15
*886 FILLER_17_153
*887 FILLER_17_166
*888 FILLER_17_175
*889 FILLER_17_183
*890 FILLER_17_191
*891 FILLER_17_203
*892 FILLER_17_215
*893 FILLER_17_223
*894 FILLER_17_225
*895 FILLER_17_237
*896 FILLER_17_249
*897 FILLER_17_261
*898 FILLER_17_27
*899 FILLER_17_273
*900 FILLER_17_277
*901 FILLER_17_279
*902 FILLER_17_281
*903 FILLER_17_293
*904 FILLER_17_297
*905 FILLER_17_3
*906 FILLER_17_39
*907 FILLER_17_51
*908 FILLER_17_55
*909 FILLER_17_57
*910 FILLER_17_69
*911 FILLER_17_81
*912 FILLER_17_85
*913 FILLER_18_109
*914 FILLER_18_121
*915 FILLER_18_130
*916 FILLER_18_138
*917 FILLER_18_141
*918 FILLER_18_15
*919 FILLER_18_153
*920 FILLER_18_161
*921 FILLER_18_163
*922 FILLER_18_167
*923 FILLER_18_179
*924 FILLER_18_191
*925 FILLER_18_195
*926 FILLER_18_197
*927 FILLER_18_209
*928 FILLER_18_217
*929 FILLER_18_219
*930 FILLER_18_242
*931 FILLER_18_250
*932 FILLER_18_253
*933 FILLER_18_265
*934 FILLER_18_27
*935 FILLER_18_277
*936 FILLER_18_289
*937 FILLER_18_29
*938 FILLER_18_297
*939 FILLER_18_3
*940 FILLER_18_41
*941 FILLER_18_53
*942 FILLER_18_65
*943 FILLER_18_77
*944 FILLER_18_81
*945 FILLER_18_83
*946 FILLER_18_85
*947 FILLER_18_89
*948 FILLER_18_91
*949 FILLER_18_97
*950 FILLER_19_105
*951 FILLER_19_109
*952 FILLER_19_111
*953 FILLER_19_113
*954 FILLER_19_125
*955 FILLER_19_137
*956 FILLER_19_149
*957 FILLER_19_15
*958 FILLER_19_161
*959 FILLER_19_165
*960 FILLER_19_167
*961 FILLER_19_176
*962 FILLER_19_188
*963 FILLER_19_200
*964 FILLER_19_212
*965 FILLER_19_216
*966 FILLER_19_244
*967 FILLER_19_252
*968 FILLER_19_254
*969 FILLER_19_269
*970 FILLER_19_27
*971 FILLER_19_277
*972 FILLER_19_279
*973 FILLER_19_281
*974 FILLER_19_293
*975 FILLER_19_297
*976 FILLER_19_3
*977 FILLER_19_39
*978 FILLER_19_51
*979 FILLER_19_55
*980 FILLER_19_57
*981 FILLER_19_69
*982 FILLER_19_81
*983 FILLER_19_93
*984 FILLER_1_105
*985 FILLER_1_109
*986 FILLER_1_111
*987 FILLER_1_113
*988 FILLER_1_125
*989 FILLER_1_137
*990 FILLER_1_149
*991 FILLER_1_15
*992 FILLER_1_161
*993 FILLER_1_165
*994 FILLER_1_167
*995 FILLER_1_169
*996 FILLER_1_181
*997 FILLER_1_193
*998 FILLER_1_205
*999 FILLER_1_217
*1000 FILLER_1_221
*1001 FILLER_1_223
*1002 FILLER_1_225
*1003 FILLER_1_237
*1004 FILLER_1_249
*1005 FILLER_1_261
*1006 FILLER_1_27
*1007 FILLER_1_273
*1008 FILLER_1_277
*1009 FILLER_1_279
*1010 FILLER_1_281
*1011 FILLER_1_293
*1012 FILLER_1_297
*1013 FILLER_1_3
*1014 FILLER_1_39
*1015 FILLER_1_51
*1016 FILLER_1_55
*1017 FILLER_1_57
*1018 FILLER_1_69
*1019 FILLER_1_81
*1020 FILLER_1_93
*1021 FILLER_20_109
*1022 FILLER_20_121
*1023 FILLER_20_138
*1024 FILLER_20_141
*1025 FILLER_20_15
*1026 FILLER_20_153
*1027 FILLER_20_168
*1028 FILLER_20_176
*1029 FILLER_20_188
*1030 FILLER_20_197
*1031 FILLER_20_209
*1032 FILLER_20_221
*1033 FILLER_20_225
*1034 FILLER_20_237
*1035 FILLER_20_249
*1036 FILLER_20_251
*1037 FILLER_20_253
*1038 FILLER_20_27
*1039 FILLER_20_281
*1040 FILLER_20_29
*1041 FILLER_20_293
*1042 FILLER_20_297
*1043 FILLER_20_3
*1044 FILLER_20_41
*1045 FILLER_20_53
*1046 FILLER_20_65
*1047 FILLER_20_77
*1048 FILLER_20_81
*1049 FILLER_20_83
*1050 FILLER_20_85
*1051 FILLER_20_97
*1052 FILLER_21_105
*1053 FILLER_21_109
*1054 FILLER_21_111
*1055 FILLER_21_113
*1056 FILLER_21_125
*1057 FILLER_21_137
*1058 FILLER_21_149
*1059 FILLER_21_15
*1060 FILLER_21_161
*1061 FILLER_21_165
*1062 FILLER_21_167
*1063 FILLER_21_169
*1064 FILLER_21_171
*1065 FILLER_21_192
*1066 FILLER_21_204
*1067 FILLER_21_216
*1068 FILLER_21_225
*1069 FILLER_21_237
*1070 FILLER_21_249
*1071 FILLER_21_257
*1072 FILLER_21_264
*1073 FILLER_21_268
*1074 FILLER_21_27
*1075 FILLER_21_281
*1076 FILLER_21_293
*1077 FILLER_21_297
*1078 FILLER_21_3
*1079 FILLER_21_39
*1080 FILLER_21_51
*1081 FILLER_21_55
*1082 FILLER_21_57
*1083 FILLER_21_69
*1084 FILLER_21_81
*1085 FILLER_21_93
*1086 FILLER_22_110
*1087 FILLER_22_122
*1088 FILLER_22_130
*1089 FILLER_22_132
*1090 FILLER_22_149
*1091 FILLER_22_15
*1092 FILLER_22_161
*1093 FILLER_22_169
*1094 FILLER_22_171
*1095 FILLER_22_179
*1096 FILLER_22_194
*1097 FILLER_22_204
*1098 FILLER_22_218
*1099 FILLER_22_230
*1100 FILLER_22_242
*1101 FILLER_22_250
*1102 FILLER_22_253
*1103 FILLER_22_265
*1104 FILLER_22_27
*1105 FILLER_22_277
*1106 FILLER_22_289
*1107 FILLER_22_29
*1108 FILLER_22_297
*1109 FILLER_22_3
*1110 FILLER_22_41
*1111 FILLER_22_53
*1112 FILLER_22_65
*1113 FILLER_22_69
*1114 FILLER_22_98
*1115 FILLER_23_108
*1116 FILLER_23_113
*1117 FILLER_23_125
*1118 FILLER_23_129
*1119 FILLER_23_131
*1120 FILLER_23_15
*1121 FILLER_23_151
*1122 FILLER_23_163
*1123 FILLER_23_167
*1124 FILLER_23_169
*1125 FILLER_23_177
*1126 FILLER_23_183
*1127 FILLER_23_195
*1128 FILLER_23_207
*1129 FILLER_23_219
*1130 FILLER_23_223
*1131 FILLER_23_225
*1132 FILLER_23_233
*1133 FILLER_23_245
*1134 FILLER_23_257
*1135 FILLER_23_269
*1136 FILLER_23_27
*1137 FILLER_23_277
*1138 FILLER_23_279
*1139 FILLER_23_281
*1140 FILLER_23_293
*1141 FILLER_23_297
*1142 FILLER_23_3
*1143 FILLER_23_39
*1144 FILLER_23_51
*1145 FILLER_23_55
*1146 FILLER_23_57
*1147 FILLER_23_65
*1148 FILLER_23_83
*1149 FILLER_23_85
*1150 FILLER_24_100
*1151 FILLER_24_109
*1152 FILLER_24_126
*1153 FILLER_24_138
*1154 FILLER_24_141
*1155 FILLER_24_15
*1156 FILLER_24_153
*1157 FILLER_24_165
*1158 FILLER_24_187
*1159 FILLER_24_19
*1160 FILLER_24_195
*1161 FILLER_24_197
*1162 FILLER_24_201
*1163 FILLER_24_203
*1164 FILLER_24_212
*1165 FILLER_24_220
*1166 FILLER_24_226
*1167 FILLER_24_238
*1168 FILLER_24_250
*1169 FILLER_24_253
*1170 FILLER_24_26
*1171 FILLER_24_265
*1172 FILLER_24_277
*1173 FILLER_24_289
*1174 FILLER_24_29
*1175 FILLER_24_297
*1176 FILLER_24_3
*1177 FILLER_24_41
*1178 FILLER_24_53
*1179 FILLER_24_55
*1180 FILLER_24_77
*1181 FILLER_24_96
*1182 FILLER_25_113
*1183 FILLER_25_117
*1184 FILLER_25_135
*1185 FILLER_25_147
*1186 FILLER_25_159
*1187 FILLER_25_167
*1188 FILLER_25_18
*1189 FILLER_25_197
*1190 FILLER_25_209
*1191 FILLER_25_221
*1192 FILLER_25_223
*1193 FILLER_25_225
*1194 FILLER_25_237
*1195 FILLER_25_250
*1196 FILLER_25_263
*1197 FILLER_25_275
*1198 FILLER_25_279
*1199 FILLER_25_281
*1200 FILLER_25_289
*1201 FILLER_25_291
*1202 FILLER_25_30
*1203 FILLER_25_32
*1204 FILLER_25_49
*1205 FILLER_25_6
*1206 FILLER_25_73
*1207 FILLER_26_118
*1208 FILLER_26_125
*1209 FILLER_26_137
*1210 FILLER_26_139
*1211 FILLER_26_141
*1212 FILLER_26_15
*1213 FILLER_26_153
*1214 FILLER_26_165
*1215 FILLER_26_167
*1216 FILLER_26_184
*1217 FILLER_26_194
*1218 FILLER_26_197
*1219 FILLER_26_209
*1220 FILLER_26_221
*1221 FILLER_26_233
*1222 FILLER_26_245
*1223 FILLER_26_249
*1224 FILLER_26_251
*1225 FILLER_26_253
*1226 FILLER_26_261
*1227 FILLER_26_263
*1228 FILLER_26_27
*1229 FILLER_26_270
*1230 FILLER_26_29
*1231 FILLER_26_296
*1232 FILLER_26_298
*1233 FILLER_26_3
*1234 FILLER_26_41
*1235 FILLER_26_49
*1236 FILLER_26_58
*1237 FILLER_26_62
*1238 FILLER_26_64
*1239 FILLER_26_73
*1240 FILLER_26_81
*1241 FILLER_26_83
*1242 FILLER_26_85
*1243 FILLER_26_97
*1244 FILLER_27_113
*1245 FILLER_27_125
*1246 FILLER_27_137
*1247 FILLER_27_149
*1248 FILLER_27_15
*1249 FILLER_27_161
*1250 FILLER_27_165
*1251 FILLER_27_167
*1252 FILLER_27_169
*1253 FILLER_27_171
*1254 FILLER_27_175
*1255 FILLER_27_222
*1256 FILLER_27_225
*1257 FILLER_27_246
*1258 FILLER_27_258
*1259 FILLER_27_262
*1260 FILLER_27_268
*1261 FILLER_27_27
*1262 FILLER_27_281
*1263 FILLER_27_293
*1264 FILLER_27_297
*1265 FILLER_27_3
*1266 FILLER_27_39
*1267 FILLER_27_51
*1268 FILLER_27_55
*1269 FILLER_27_57
*1270 FILLER_27_69
*1271 FILLER_27_81
*1272 FILLER_27_93
*1273 FILLER_27_95
*1274 FILLER_28_101
*1275 FILLER_28_113
*1276 FILLER_28_125
*1277 FILLER_28_137
*1278 FILLER_28_139
*1279 FILLER_28_141
*1280 FILLER_28_145
*1281 FILLER_28_15
*1282 FILLER_28_163
*1283 FILLER_28_175
*1284 FILLER_28_187
*1285 FILLER_28_193
*1286 FILLER_28_195
*1287 FILLER_28_197
*1288 FILLER_28_210
*1289 FILLER_28_227
*1290 FILLER_28_237
*1291 FILLER_28_267
*1292 FILLER_28_269
*1293 FILLER_28_27
*1294 FILLER_28_286
*1295 FILLER_28_29
*1296 FILLER_28_298
*1297 FILLER_28_3
*1298 FILLER_28_41
*1299 FILLER_28_53
*1300 FILLER_28_65
*1301 FILLER_28_77
*1302 FILLER_28_81
*1303 FILLER_28_83
*1304 FILLER_28_85
*1305 FILLER_28_93
*1306 FILLER_28_95
*1307 FILLER_29_103
*1308 FILLER_29_111
*1309 FILLER_29_113
*1310 FILLER_29_125
*1311 FILLER_29_137
*1312 FILLER_29_149
*1313 FILLER_29_15
*1314 FILLER_29_156
*1315 FILLER_29_158
*1316 FILLER_29_167
*1317 FILLER_29_169
*1318 FILLER_29_181
*1319 FILLER_29_203
*1320 FILLER_29_223
*1321 FILLER_29_225
*1322 FILLER_29_27
*1323 FILLER_29_275
*1324 FILLER_29_279
*1325 FILLER_29_281
*1326 FILLER_29_293
*1327 FILLER_29_297
*1328 FILLER_29_3
*1329 FILLER_29_39
*1330 FILLER_29_51
*1331 FILLER_29_55
*1332 FILLER_29_57
*1333 FILLER_29_69
*1334 FILLER_29_81
*1335 FILLER_2_109
*1336 FILLER_2_121
*1337 FILLER_2_133
*1338 FILLER_2_137
*1339 FILLER_2_139
*1340 FILLER_2_141
*1341 FILLER_2_15
*1342 FILLER_2_153
*1343 FILLER_2_165
*1344 FILLER_2_177
*1345 FILLER_2_189
*1346 FILLER_2_193
*1347 FILLER_2_195
*1348 FILLER_2_197
*1349 FILLER_2_209
*1350 FILLER_2_221
*1351 FILLER_2_233
*1352 FILLER_2_245
*1353 FILLER_2_249
*1354 FILLER_2_251
*1355 FILLER_2_253
*1356 FILLER_2_265
*1357 FILLER_2_27
*1358 FILLER_2_277
*1359 FILLER_2_289
*1360 FILLER_2_29
*1361 FILLER_2_297
*1362 FILLER_2_3
*1363 FILLER_2_41
*1364 FILLER_2_53
*1365 FILLER_2_65
*1366 FILLER_2_77
*1367 FILLER_2_81
*1368 FILLER_2_83
*1369 FILLER_2_85
*1370 FILLER_2_97
*1371 FILLER_30_101
*1372 FILLER_30_113
*1373 FILLER_30_125
*1374 FILLER_30_137
*1375 FILLER_30_139
*1376 FILLER_30_141
*1377 FILLER_30_15
*1378 FILLER_30_153
*1379 FILLER_30_165
*1380 FILLER_30_177
*1381 FILLER_30_189
*1382 FILLER_30_193
*1383 FILLER_30_195
*1384 FILLER_30_197
*1385 FILLER_30_199
*1386 FILLER_30_224
*1387 FILLER_30_245
*1388 FILLER_30_249
*1389 FILLER_30_251
*1390 FILLER_30_253
*1391 FILLER_30_265
*1392 FILLER_30_27
*1393 FILLER_30_277
*1394 FILLER_30_289
*1395 FILLER_30_29
*1396 FILLER_30_297
*1397 FILLER_30_3
*1398 FILLER_30_41
*1399 FILLER_30_45
*1400 FILLER_30_62
*1401 FILLER_30_74
*1402 FILLER_30_82
*1403 FILLER_31_105
*1404 FILLER_31_109
*1405 FILLER_31_111
*1406 FILLER_31_113
*1407 FILLER_31_125
*1408 FILLER_31_137
*1409 FILLER_31_149
*1410 FILLER_31_15
*1411 FILLER_31_157
*1412 FILLER_31_164
*1413 FILLER_31_169
*1414 FILLER_31_181
*1415 FILLER_31_193
*1416 FILLER_31_205
*1417 FILLER_31_217
*1418 FILLER_31_221
*1419 FILLER_31_223
*1420 FILLER_31_225
*1421 FILLER_31_237
*1422 FILLER_31_249
*1423 FILLER_31_261
*1424 FILLER_31_27
*1425 FILLER_31_273
*1426 FILLER_31_277
*1427 FILLER_31_279
*1428 FILLER_31_281
*1429 FILLER_31_293
*1430 FILLER_31_297
*1431 FILLER_31_3
*1432 FILLER_31_39
*1433 FILLER_31_71
*1434 FILLER_31_83
*1435 FILLER_31_93
*1436 FILLER_32_109
*1437 FILLER_32_121
*1438 FILLER_32_139
*1439 FILLER_32_147
*1440 FILLER_32_15
*1441 FILLER_32_151
*1442 FILLER_32_153
*1443 FILLER_32_178
*1444 FILLER_32_190
*1445 FILLER_32_194
*1446 FILLER_32_197
*1447 FILLER_32_209
*1448 FILLER_32_221
*1449 FILLER_32_233
*1450 FILLER_32_245
*1451 FILLER_32_249
*1452 FILLER_32_251
*1453 FILLER_32_253
*1454 FILLER_32_265
*1455 FILLER_32_27
*1456 FILLER_32_277
*1457 FILLER_32_289
*1458 FILLER_32_29
*1459 FILLER_32_293
*1460 FILLER_32_295
*1461 FILLER_32_3
*1462 FILLER_32_41
*1463 FILLER_32_45
*1464 FILLER_32_71
*1465 FILLER_32_83
*1466 FILLER_32_85
*1467 FILLER_32_97
*1468 FILLER_33_104
*1469 FILLER_33_113
*1470 FILLER_33_132
*1471 FILLER_33_15
*1472 FILLER_33_153
*1473 FILLER_33_157
*1474 FILLER_33_159
*1475 FILLER_33_164
*1476 FILLER_33_169
*1477 FILLER_33_181
*1478 FILLER_33_193
*1479 FILLER_33_205
*1480 FILLER_33_217
*1481 FILLER_33_221
*1482 FILLER_33_223
*1483 FILLER_33_225
*1484 FILLER_33_237
*1485 FILLER_33_249
*1486 FILLER_33_261
*1487 FILLER_33_27
*1488 FILLER_33_273
*1489 FILLER_33_277
*1490 FILLER_33_279
*1491 FILLER_33_281
*1492 FILLER_33_293
*1493 FILLER_33_297
*1494 FILLER_33_3
*1495 FILLER_33_39
*1496 FILLER_33_47
*1497 FILLER_33_49
*1498 FILLER_33_55
*1499 FILLER_33_57
*1500 FILLER_33_69
*1501 FILLER_33_71
*1502 FILLER_33_92
*1503 FILLER_34_109
*1504 FILLER_34_121
*1505 FILLER_34_125
*1506 FILLER_34_130
*1507 FILLER_34_138
*1508 FILLER_34_141
*1509 FILLER_34_15
*1510 FILLER_34_153
*1511 FILLER_34_165
*1512 FILLER_34_177
*1513 FILLER_34_189
*1514 FILLER_34_193
*1515 FILLER_34_195
*1516 FILLER_34_197
*1517 FILLER_34_209
*1518 FILLER_34_221
*1519 FILLER_34_233
*1520 FILLER_34_245
*1521 FILLER_34_249
*1522 FILLER_34_251
*1523 FILLER_34_253
*1524 FILLER_34_265
*1525 FILLER_34_27
*1526 FILLER_34_277
*1527 FILLER_34_289
*1528 FILLER_34_29
*1529 FILLER_34_297
*1530 FILLER_34_3
*1531 FILLER_34_41
*1532 FILLER_34_53
*1533 FILLER_34_61
*1534 FILLER_34_71
*1535 FILLER_34_78
*1536 FILLER_34_82
*1537 FILLER_34_85
*1538 FILLER_34_97
*1539 FILLER_35_105
*1540 FILLER_35_109
*1541 FILLER_35_111
*1542 FILLER_35_113
*1543 FILLER_35_117
*1544 FILLER_35_119
*1545 FILLER_35_126
*1546 FILLER_35_138
*1547 FILLER_35_15
*1548 FILLER_35_150
*1549 FILLER_35_162
*1550 FILLER_35_166
*1551 FILLER_35_169
*1552 FILLER_35_181
*1553 FILLER_35_193
*1554 FILLER_35_205
*1555 FILLER_35_217
*1556 FILLER_35_221
*1557 FILLER_35_223
*1558 FILLER_35_225
*1559 FILLER_35_237
*1560 FILLER_35_249
*1561 FILLER_35_261
*1562 FILLER_35_27
*1563 FILLER_35_273
*1564 FILLER_35_277
*1565 FILLER_35_279
*1566 FILLER_35_281
*1567 FILLER_35_293
*1568 FILLER_35_297
*1569 FILLER_35_3
*1570 FILLER_35_39
*1571 FILLER_35_51
*1572 FILLER_35_55
*1573 FILLER_35_57
*1574 FILLER_35_69
*1575 FILLER_35_81
*1576 FILLER_35_93
*1577 FILLER_36_109
*1578 FILLER_36_113
*1579 FILLER_36_132
*1580 FILLER_36_141
*1581 FILLER_36_15
*1582 FILLER_36_153
*1583 FILLER_36_161
*1584 FILLER_36_178
*1585 FILLER_36_186
*1586 FILLER_36_195
*1587 FILLER_36_197
*1588 FILLER_36_209
*1589 FILLER_36_221
*1590 FILLER_36_233
*1591 FILLER_36_245
*1592 FILLER_36_249
*1593 FILLER_36_251
*1594 FILLER_36_253
*1595 FILLER_36_265
*1596 FILLER_36_27
*1597 FILLER_36_277
*1598 FILLER_36_289
*1599 FILLER_36_29
*1600 FILLER_36_297
*1601 FILLER_36_3
*1602 FILLER_36_41
*1603 FILLER_36_53
*1604 FILLER_36_71
*1605 FILLER_36_83
*1606 FILLER_36_85
*1607 FILLER_36_97
*1608 FILLER_37_104
*1609 FILLER_37_113
*1610 FILLER_37_125
*1611 FILLER_37_137
*1612 FILLER_37_145
*1613 FILLER_37_15
*1614 FILLER_37_150
*1615 FILLER_37_162
*1616 FILLER_37_167
*1617 FILLER_37_177
*1618 FILLER_37_179
*1619 FILLER_37_218
*1620 FILLER_37_222
*1621 FILLER_37_225
*1622 FILLER_37_237
*1623 FILLER_37_249
*1624 FILLER_37_261
*1625 FILLER_37_27
*1626 FILLER_37_273
*1627 FILLER_37_277
*1628 FILLER_37_279
*1629 FILLER_37_281
*1630 FILLER_37_293
*1631 FILLER_37_295
*1632 FILLER_37_3
*1633 FILLER_37_39
*1634 FILLER_37_51
*1635 FILLER_37_55
*1636 FILLER_37_64
*1637 FILLER_37_68
*1638 FILLER_37_77
*1639 FILLER_37_81
*1640 FILLER_37_87
*1641 FILLER_37_91
*1642 FILLER_37_93
*1643 FILLER_38_113
*1644 FILLER_38_123
*1645 FILLER_38_135
*1646 FILLER_38_139
*1647 FILLER_38_141
*1648 FILLER_38_15
*1649 FILLER_38_153
*1650 FILLER_38_165
*1651 FILLER_38_178
*1652 FILLER_38_186
*1653 FILLER_38_188
*1654 FILLER_38_195
*1655 FILLER_38_213
*1656 FILLER_38_225
*1657 FILLER_38_237
*1658 FILLER_38_249
*1659 FILLER_38_251
*1660 FILLER_38_253
*1661 FILLER_38_265
*1662 FILLER_38_27
*1663 FILLER_38_277
*1664 FILLER_38_285
*1665 FILLER_38_29
*1666 FILLER_38_290
*1667 FILLER_38_298
*1668 FILLER_38_3
*1669 FILLER_38_41
*1670 FILLER_39_104
*1671 FILLER_39_113
*1672 FILLER_39_125
*1673 FILLER_39_137
*1674 FILLER_39_149
*1675 FILLER_39_15
*1676 FILLER_39_166
*1677 FILLER_39_176
*1678 FILLER_39_188
*1679 FILLER_39_196
*1680 FILLER_39_205
*1681 FILLER_39_217
*1682 FILLER_39_221
*1683 FILLER_39_223
*1684 FILLER_39_225
*1685 FILLER_39_237
*1686 FILLER_39_249
*1687 FILLER_39_261
*1688 FILLER_39_27
*1689 FILLER_39_273
*1690 FILLER_39_277
*1691 FILLER_39_279
*1692 FILLER_39_281
*1693 FILLER_39_293
*1694 FILLER_39_3
*1695 FILLER_39_39
*1696 FILLER_39_47
*1697 FILLER_39_49
*1698 FILLER_39_55
*1699 FILLER_39_70
*1700 FILLER_39_82
*1701 FILLER_39_90
*1702 FILLER_3_105
*1703 FILLER_3_109
*1704 FILLER_3_111
*1705 FILLER_3_113
*1706 FILLER_3_125
*1707 FILLER_3_137
*1708 FILLER_3_149
*1709 FILLER_3_15
*1710 FILLER_3_161
*1711 FILLER_3_165
*1712 FILLER_3_167
*1713 FILLER_3_169
*1714 FILLER_3_181
*1715 FILLER_3_193
*1716 FILLER_3_205
*1717 FILLER_3_217
*1718 FILLER_3_221
*1719 FILLER_3_223
*1720 FILLER_3_225